9
Properties=species:S:1:pos:R:3 pbc="F F F"
C        2.97702243      21.65394600      17.86108086
C        4.68905633      23.36597210      17.86108245
C        4.68905828      21.65393784      16.14800670
C        3.54313506      21.08993186      16.71490419
C        5.25306896      22.79985796      16.71490578
C        3.54313312      22.79986611      18.42402994
H        3.15589466      20.33705178      16.32713474
H        6.00595116      23.18709528      16.32713739
H        3.15589143      23.18710887      19.17796766
